This is a sample file created for jenkins demo.
New Line.
New Line 1 2 3.
